*HEADING
cubit(ah05.inp): 09/29/2015: 16:39:59
version: 13.2
**
********************************** P A R T S **********************************
*PART, NAME=Part-Default
**
********************************** N O D E S **********************************
*NODE, NSET=ALLNODES
       1,    2.000000e+00,    0.000000e+00,    0.000000e+00
       2,    1.941884e+00,   -4.786313e-01,    0.000000e+00
       3,    2.364761e+00,   -5.635481e-01,    0.000000e+00
       4,    2.452270e+00,   -3.102364e-02,    0.000000e+00
       5,    1.770912e+00,   -9.294463e-01,    0.000000e+00
       6,    2.210499e+00,   -1.080650e+00,    0.000000e+00
       7,    1.497021e+00,   -1.326245e+00,    0.000000e+00
       8,    1.968480e+00,   -1.670077e+00,    0.000000e+00
       9,    1.136129e+00,   -1.645968e+00,    0.000000e+00
      10,    1.420579e+00,   -2.033136e+00,    0.000000e+00
      11,    7.092098e-01,   -1.870032e+00,    0.000000e+00
      12,    9.032204e-01,   -2.411640e+00,    0.000000e+00
      13,    2.410734e-01,   -1.985418e+00,    0.000000e+00
      14,    2.664408e-01,   -2.450021e+00,    0.000000e+00
      15,   -2.410734e-01,   -1.985418e+00,    0.000000e+00
      16,   -2.867671e-01,   -2.458499e+00,    0.000000e+00
      17,   -7.092098e-01,   -1.870032e+00,    0.000000e+00
      18,   -9.440926e-01,   -2.422307e+00,    0.000000e+00
      19,   -1.136129e+00,   -1.645968e+00,    0.000000e+00
      20,   -1.443517e+00,   -1.996917e+00,    0.000000e+00
** ... 1642 like lines cut
**
********************************** E L E M E N T S ****************************
*ELEMENT, TYPE=S4R, ELSET=EB1
       1,       1,       2,       3,       4
       2,       2,       5,       6,       3
       3,       5,       7,       8,       6
       4,       7,       9,      10,       8
       5,       9,      11,      12,      10
       6,      11,      13,      14,      12
       7,      13,      15,      16,      14
       8,      15,      17,      18,      16
       9,      17,      19,      20,      18
      10,      19,      21,      22,      20
      11,      21,      23,      24,      22
      12,      23,      25,      26,      24
      13,      25,      27,      28,      26
      14,      27,      29,      30,      28
      15,      29,      31,      32,      30
      16,      31,      33,      34,      32
      17,      33,      35,      36,      34
      18,      35,      37,      38,      36
      19,      37,      39,      40,      38
      20,      39,      41,      42,      40
** ... 1549 like lines cut
**
********************************** N O D E S E T S **********************************
*NSET, NSET=NS1
      53,      54,      57,      59,      61,      63,
      65,      67,      69,      71,      73,      75,
      77,      79,      81,      83,      85,      87,
      89,      91,      93,      95,      97,      99,
     101,     103,     105,     107,     109,     111,
     113,     115,     117,     119,     121,     123,
     125,     127,     129,     131,     133,
*NSET, NSET=NS2
     133,     134,     217,     219,     221,     223,
     225,     227,     229,     231,     233,     235,
     237,     239,     241,     243,     245,     247,
     249,     251,     253,     255,     257,     259,
     261,     263,     265,     267,     269,     271,
     273,     275,     277,     279,     281,     283,
     285,     287,     289,     138,     135,
*NSET, NSET=NS3
     135,     136,     139,     141,     143,     145,
     147,     149,     151,     153,     155,     157,
     159,     161,     163,     165,     167,     169,
     171,     173,     175,     177,     179,     181,
     183,     185,     187,     189,     191,     193,
     195,     197,     199,     201,     203,     205,
     207,     209,     211,     213,     215,
*NSET, NSET=NS4
     215,     216,     291,     293,     295,     297,
     299,     301,     303,     305,     307,     309,
     311,     313,     315,     317,     319,     321,
     323,     325,     327,     329,     331,     333,
     335,     337,     339,     341,     343,     345,
     347,     349,     351,     353,     355,     357,
     359,     361,     363,      56,      53,
*NSET, NSET=NS5
       1,       2,       5,       7,       9,      11,
      13,      15,      17,      19,      21,      23,
      25,      27,      29,      31,      33,      35,
      37,      39,      41,      43,      45,      47,
      49,      51,
**
********************************** P R O P E R T I E S ************************
*SHELL SECTION, ELSET=EB1, SECTION INTEGRATION=SIMPSON, MATERIAL=Default-Steel
1.000000e+00
**
*END PART
**
**
**
********************************** E N D   P A R T S **********************************
**
**
********************************** A S S E M B L Y ************************************
**
*ASSEMBLY, NAME=ASSEMBLY1
**
*INSTANCE, NAME=Part-Default_1, PART=Part-Default
*END INSTANCE
**
*END ASSEMBLY
**
**
**
*MATERIAL, NAME = Default-Steel
*ELASTIC, TYPE=ISOTROPIC
2.068000e+05, 2.900000e-01
*DENSITY
7.000000e-06
*CONDUCTIVITY,TYPE=ISO
4.500000e-02
*SPECIFIC HEAT
5.000000e+02
**
**
************************************** H I S T O R Y *************************************
**
*PREPRINT
**
**************************************** S T E P 1 ***************************************
*STEP,INC=100,NAME=Default Set
**
*STATIC
1, 1, 1e-05, 1
**
**
**
**
*END STEP
