*HEADING
cubit(ah025.inp): 11/03/2015: 12:38:02
version: 13.2
**
********************************** P A R T S **********************************
*PART, NAME=Part-Default
**
********************************** N O D E S **********************************
*NODE, NSET=ALLNODES
       1,    1.000000e+01,    1.000000e+01
       2,    9.750000e+00,    1.000000e+01
       3,    9.749982e+00,    9.749992e+00
       4,    1.000000e+01,    9.750000e+00
       5,    9.500000e+00,    1.000000e+01
       6,    9.499977e+00,    9.750005e+00
       7,    9.250000e+00,    1.000000e+01
       8,    9.249973e+00,    9.749990e+00
       9,    9.000000e+00,    1.000000e+01
      10,    8.999974e+00,    9.749988e+00
      11,    8.750000e+00,    1.000000e+01
      12,    8.749977e+00,    9.749990e+00
      13,    8.500000e+00,    1.000000e+01
      14,    8.499981e+00,    9.749992e+00
      15,    8.250000e+00,    1.000000e+01
      16,    8.249986e+00,    9.749995e+00
      17,    8.000000e+00,    1.000000e+01
      18,    7.999989e+00,    9.749997e+00
      19,    7.750000e+00,    1.000000e+01
      20,    7.749992e+00,    9.749998e+00
** ... 6436 like lines cut
**
********************************** E L E M E N T S ****************************
*ELEMENT, TYPE=S4R, ELSET=EB1
       1,       1,       2,       3,       4
       2,       2,       5,       6,       3
       3,       5,       7,       8,       6
       4,       7,       9,      10,       8
       5,       9,      11,      12,      10
       6,      11,      13,      14,      12
       7,      13,      15,      16,      14
       8,      15,      17,      18,      16
       9,      17,      19,      20,      18
      10,      19,      21,      22,      20
      11,      21,      23,      24,      22
      12,      23,      25,      26,      24
      13,      25,      27,      28,      26
      14,      27,      29,      30,      28
      15,      29,      31,      32,      30
      16,      31,      33,      34,      32
      17,      33,      35,      36,      34
      18,      35,      37,      38,      36
      19,      37,      39,      40,      38
      20,      39,      41,      42,      40
** ... 6251 like lines cut
**
********************************** N O D E S E T S **********************************
*NSET, NSET=NS1
       1,       2,       5,       7,       9,      11,
      13,      15,      17,      19,      21,      23,
      25,      27,      29,      31,      33,      35,
      37,      39,      41,      43,      45,      47,
      49,      51,      53,      55,      57,      59,
      61,      63,      65,      67,      69,      71,
      73,      75,      77,      79,      81,      83,
      85,      87,      89,      91,      93,      95,
      97,      99,     101,     103,     105,     107,
     109,     111,     113,     115,     117,     119,
     121,     123,     125,     127,     129,     131,
     133,     135,     137,     139,     141,     143,
     145,     147,     149,     151,     153,     155,
     157,     159,     161,
*NSET, NSET=NS2
     161,     162,     325,     327,     329,     331,
     333,     335,     337,     339,     341,     343,
     345,     347,     349,     351,     353,     355,
     357,     359,     361,     363,     365,     367,
     369,     371,     373,     375,     377,     379,
     381,     383,     385,     387,     389,     391,
     393,     395,     397,     399,     401,     403,
     405,     407,     409,     411,     413,     415,
     417,     419,     421,     423,     425,     427,
     429,     431,     433,     435,     437,     439,
     441,     443,     445,     447,     449,     451,
     453,     455,     457,     459,     461,     463,
     465,     467,     469,     471,     473,     475,
     477,     166,     163,
*NSET, NSET=NS3
     163,     164,     167,     169,     171,     173,
     175,     177,     179,     181,     183,     185,
     187,     189,     191,     193,     195,     197,
     199,     201,     203,     205,     207,     209,
     211,     213,     215,     217,     219,     221,
     223,     225,     227,     229,     231,     233,
     235,     237,     239,     241,     243,     245,
     247,     249,     251,     253,     255,     257,
     259,     261,     263,     265,     267,     269,
     271,     273,     275,     277,     279,     281,
     283,     285,     287,     289,     291,     293,
     295,     297,     299,     301,     303,     305,
     307,     309,     311,     313,     315,     317,
     319,     321,     323,
*NSET, NSET=NS4
     323,     324,     479,     481,     483,     485,
     487,     489,     491,     493,     495,     497,
     499,     501,     503,     505,     507,     509,
     511,     513,     515,     517,     519,     521,
     523,     525,     527,     529,     531,     533,
     535,     537,     539,     541,     543,     545,
     547,     549,     551,     553,     555,     557,
     559,     561,     563,     565,     567,     569,
     571,     573,     575,     577,     579,     581,
     583,     585,     587,     589,     591,     593,
     595,     597,     599,     601,     603,     605,
     607,     609,     611,     613,     615,     617,
     619,     621,     623,     625,     627,     629,
     631,       4,       1,
*NSET, NSET=NS5
     633,     634,     637,     639,     641,     643,
     645,     647,     649,     651,     653,     655,
     657,     659,     661,     663,     665,     667,
     669,     671,     673,     675,     677,     679,
     681,     683,     685,     687,     689,     691,
     693,     695,     697,     699,     701,     703,
     705,     707,     709,     711,     713,     715,
     717,     719,     721,     723,     725,     727,
     729,     731,
**
********************************** P R O P E R T I E S ************************
*SHELL SECTION, ELSET=EB1, SECTION INTEGRATION=SIMPSON, MATERIAL=Default-Steel
1.000000e+00
**
*END PART
**
**
**
********************************** E N D   P A R T S **********************************
**
**
********************************** A S S E M B L Y ************************************
**
*ASSEMBLY, NAME=ASSEMBLY1
**
*INSTANCE, NAME=Part-Default_1, PART=Part-Default
*END INSTANCE
**
*END ASSEMBLY
**
**
**
*MATERIAL, NAME = Default-Steel
*ELASTIC, TYPE=ISOTROPIC
2.068000e+05, 2.900000e-01
*DENSITY
7.000000e-06
*CONDUCTIVITY,TYPE=ISO
4.500000e-02
*SPECIFIC HEAT
5.000000e+02
**
**
************************************** H I S T O R Y *************************************
**
*PREPRINT
**
**************************************** S T E P 1 ***************************************
*STEP,INC=100,NAME=Default Set
**
*STATIC
1, 1, 1e-05, 1
**
**
**
**
*END STEP
